Version 4
SHEET 1 880 836
WIRE -1216 80 -1280 80
WIRE -1152 80 -1216 80
WIRE -1104 80 -1152 80
WIRE -1024 80 -1104 80
WIRE -944 80 -1024 80
WIRE -864 80 -944 80
WIRE -800 80 -864 80
WIRE -656 80 -704 80
WIRE -512 80 -656 80
WIRE -480 80 -512 80
WIRE -352 80 -400 80
WIRE -272 80 -352 80
WIRE -192 80 -272 80
WIRE -48 80 -192 80
WIRE 80 80 -48 80
WIRE 192 80 80 80
WIRE 336 80 288 80
WIRE 448 80 336 80
WIRE 608 80 448 80
WIRE -1216 96 -1216 80
WIRE -1152 96 -1152 80
WIRE -1104 144 -1104 80
WIRE -1024 144 -1024 80
WIRE -944 144 -944 80
WIRE -864 144 -864 80
WIRE -512 144 -512 80
WIRE -352 144 -352 80
WIRE -272 144 -272 80
WIRE -192 144 -192 80
WIRE 448 144 448 80
WIRE 608 144 608 80
WIRE -1152 160 -1152 144
WIRE -1152 160 -1760 160
WIRE -1216 176 -1216 144
WIRE -1216 176 -1584 176
WIRE -1280 192 -1280 144
WIRE -1280 192 -1408 192
WIRE -1760 208 -1760 160
WIRE -1584 208 -1584 176
WIRE -1408 208 -1408 192
WIRE -1280 208 -1280 192
WIRE -1216 208 -1216 176
WIRE -1152 208 -1152 160
WIRE -1216 272 -1216 256
WIRE -1216 272 -1280 272
WIRE -1152 272 -1152 256
WIRE -1152 272 -1216 272
WIRE -1104 272 -1104 208
WIRE -1104 272 -1152 272
WIRE -1024 272 -1024 208
WIRE -1024 272 -1104 272
WIRE -944 272 -944 208
WIRE -944 272 -1024 272
WIRE -864 272 -864 208
WIRE -864 272 -944 272
WIRE -512 272 -512 208
WIRE -512 272 -864 272
WIRE -352 272 -352 208
WIRE -352 272 -512 272
WIRE -272 272 -272 208
WIRE -272 272 -352 272
WIRE -192 272 -192 208
WIRE -192 272 -272 272
WIRE 448 272 448 208
WIRE 448 272 -192 272
WIRE 496 272 448 272
WIRE 608 272 608 224
WIRE 608 272 576 272
WIRE -1584 288 -1760 288
WIRE -1408 288 -1584 288
WIRE 448 320 448 272
WIRE -48 448 -48 80
WIRE -48 448 -144 448
WIRE -720 480 -720 128
WIRE -1024 496 -1168 496
WIRE -816 496 -960 496
WIRE -48 496 -48 448
WIRE 80 496 80 80
WIRE 208 496 208 128
WIRE 336 496 336 80
WIRE -1168 608 -1168 496
WIRE -1168 608 -1392 608
WIRE -1104 608 -1168 608
WIRE -816 608 -816 496
WIRE -816 608 -880 608
WIRE -144 624 -144 448
WIRE -96 624 -144 624
WIRE -1104 640 -1232 640
WIRE -720 640 -720 560
WIRE -720 640 -880 640
WIRE -1392 672 -1392 608
WIRE -1232 672 -1232 640
WIRE -1104 672 -1168 672
WIRE -816 672 -880 672
WIRE -656 672 -656 80
WIRE -656 672 -816 672
WIRE -1168 688 -1168 672
WIRE -1392 768 -1392 752
WIRE -1232 768 -1232 752
WIRE 144 784 144 752
FLAG 448 320 0
FLAG -1232 768 0
FLAG -1392 768 0
FLAG -1168 688 0
FLAG 144 784 0
SYMBOL Misc\\battery 608 128 R0
WINDOW 123 0 0 Left 0
WINDOW 39 24 132 Left 2
SYMATTR SpiceLine Rser=1
SYMATTR InstName V1
SYMATTR Value 24
SYMBOL res 592 256 R90
WINDOW 0 0 56 VBottom 2
WINDOW 3 32 56 VTop 2
SYMATTR InstName R1
SYMATTR Value 0.1
SYMBOL schottky -496 208 R180
WINDOW 0 24 64 Left 2
WINDOW 3 24 0 Left 2
SYMATTR InstName D1
SYMATTR Value MBR40250
SYMATTR Description Diode
SYMATTR Type diode
SYMBOL ind -496 96 R270
WINDOW 0 32 56 VTop 2
WINDOW 3 5 56 VBottom 2
SYMATTR InstName L1
SYMATTR Value 860µ
SYMBOL cap -1120 144 R0
SYMATTR InstName C2
SYMATTR Value 10n
SYMBOL diode -1136 144 R180
WINDOW 0 24 64 Left 2
WINDOW 3 24 0 Left 2
SYMATTR InstName D2
SYMBOL diode -1136 272 R180
WINDOW 0 24 64 Left 2
WINDOW 3 24 0 Left 2
SYMATTR InstName D3
SYMBOL diode -1200 144 R180
WINDOW 0 24 64 Left 2
WINDOW 3 24 0 Left 2
SYMATTR InstName D4
SYMBOL diode -1200 272 R180
WINDOW 0 24 64 Left 2
WINDOW 3 24 0 Left 2
SYMATTR InstName D5
SYMBOL voltage -1760 192 R0
WINDOW 123 0 0 Left 0
WINDOW 39 -42 145 Left 2
WINDOW 0 -20 168 Left 2
WINDOW 3 -195 123 Left 2
SYMATTR SpiceLine Rser=1
SYMATTR InstName V2
SYMATTR Value SINE(0 50 500 0 0 -120)
SYMBOL voltage -1232 656 R0
WINDOW 123 0 0 Left 0
WINDOW 39 0 0 Left 0
SYMATTR InstName V3
SYMATTR Value PULSE(0 3.3 0 0 0 5u 10u)
SYMBOL nmos -800 128 R270
SYMATTR InstName M1
SYMATTR Value IRFR2307Z
SYMBOL res -736 464 R0
SYMATTR InstName R2
SYMATTR Value 10
SYMBOL IRS25752L -992 656 R0
SYMATTR InstName U1
SYMATTR SpiceModel IRS25752L
SYMBOL voltage -1392 656 R0
WINDOW 123 0 0 Left 0
WINDOW 39 24 124 Left 2
SYMATTR SpiceLine Rser=10
SYMATTR InstName V4
SYMATTR Value PULSE(0 12 0 0 0 100m)
SYMBOL cap -1184 608 R0
SYMATTR InstName C3
SYMATTR Value 220n
SYMBOL diode -1024 512 R270
WINDOW 0 32 32 VTop 2
WINDOW 3 0 32 VBottom 2
SYMATTR InstName D6
SYMATTR Value BAS21HM
SYMBOL cap -832 608 R0
SYMATTR InstName C4
SYMATTR Value 220n
SYMBOL cap -1040 144 R0
SYMATTR InstName C5
SYMATTR Value 470µ
SYMBOL cap -960 144 R0
SYMATTR InstName C6
SYMATTR Value 470µ
SYMBOL cap -880 144 R0
SYMATTR InstName C7
SYMATTR Value 4.7µ
SYMBOL cap -288 144 R0
SYMATTR InstName C8
SYMATTR Value 470µ
SYMBOL cap -208 144 R0
SYMATTR InstName C9
SYMATTR Value 470µ
SYMBOL cap -368 144 R0
SYMATTR InstName C10
SYMATTR Value 4.7µ
SYMBOL SpecialFunctions\\LTC4359 144 624 R0
SYMATTR InstName U2
SYMBOL nmos 288 128 M270
SYMATTR InstName M2
SYMATTR Value IRFR2307Z
SYMBOL cap 432 144 R0
SYMATTR InstName C11
SYMATTR Value 10n
SYMBOL voltage -1584 192 R0
WINDOW 123 0 0 Left 0
WINDOW 39 -42 145 Left 2
WINDOW 0 -20 168 Left 2
WINDOW 3 -78 124 Left 2
SYMATTR SpiceLine Rser=1
SYMATTR InstName V5
SYMATTR Value SINE(0 50 500)
SYMBOL voltage -1408 192 R0
WINDOW 123 0 0 Left 0
WINDOW 39 -42 145 Left 2
WINDOW 0 -20 168 Left 2
WINDOW 3 -66 124 Left 2
SYMATTR SpiceLine Rser=1
SYMATTR InstName V6
SYMATTR Value SINE(0 50 500 0 0 120)
SYMBOL diode -1264 144 R180
WINDOW 0 24 64 Left 2
WINDOW 3 24 0 Left 2
SYMATTR InstName D7
SYMBOL diode -1264 272 R180
WINDOW 0 24 64 Left 2
WINDOW 3 24 0 Left 2
SYMATTR InstName D8
TEXT -1448 -72 Left 2 !.tran 0 100m 0 startup
